CRYSTAL
PRIMVEC
 12.05952009000000 -0.04330599600000 0.00000000000000
 6.06798895300000 10.55741343400000 0.00000000000000
 0.00000000000000 0.00000000000000 18.99999643700000
PRIMCOORD
 63 1
  5     0.01800135400000    -0.00638434800000     9.50007901700000
  5     1.50916875400000     0.81314575800000     9.50007901700000
  5     1.50498528100000     2.63917909700000     9.50006454600000
  5     3.02730381500000     3.43395327200000     9.50005851600000
  5     3.03388594000000     5.25521824900000     9.50003319100000
  5     4.50773576600000     6.08828645300000     9.50002474900000
  5     4.53483246400000     7.92388787300000     9.50005851600000
  5     6.03597676500000     8.69781824800000     9.50005128000000
  5     3.01509709500000     0.04720606900000     9.50007781200000
  5     4.52649446200000     0.80233674500000     9.50007901700000
  5     4.54386992200000     2.62828807900000     9.50006454600000
  5     6.06117528300000     3.42727346400000     9.50004163300000
  5     5.99693383400000     5.22202542600000     9.49999460000000
  5     7.09269252300000     6.39995938400000     9.49997651100000
  5     7.62636084400000     7.93972814800000     9.50002716100000
  5     9.07650633400000     8.77966067200000     9.50003922100000
  5     6.01173216000000    -0.02786368800000     9.50007781200000
  5     7.53873584500000     0.78949448500000     9.50007298800000
  5     7.59289668100000     2.60507215800000     9.50004645700000
  5     9.05752333000000     3.53957600600000     9.50001148400000
  5    11.04303151400000     6.38575800800000     9.49997651100000
  5    10.52060032200000     7.92938945900000     9.50002716100000
  5    12.11634730100000     8.67606274300000     9.50005007400000
  5     9.04459665300000    -0.04455537000000     9.50007901700000
  5    10.55643540000000     0.77862758600000     9.50007419400000
  5    10.51539178400000     2.59456945900000     9.50004645700000
  5    12.05299946800000     3.40573262000000     9.50004163300000
  5    12.13022065700000     5.19996360800000     9.49999460000000
  5    13.62560288400000     6.05556757300000     9.50002354300000
  5    13.61183927100000     7.89131370800000     9.50005851600000
  5    15.10600589200000     8.69301611900000     9.50007901700000
  1     1.48928972200000     1.72931058400000    10.46670962000000
  1     1.48929454500000     1.72929490700000     8.53343394300000
  1     3.03063829200000     4.35954267000000    10.46800240900000
  1     3.03063949800000     4.35951613900000     8.53209171000000
  1     4.51755106800000     7.00538348600000    10.46575329500000
  1     4.51752091900000     7.00541845900000     8.53433238300000
  1     6.09291130700000     9.59968160400000    10.46701352200000
  1     6.09289924700000     9.59970813500000     8.53311557000000
  1     4.55297732700000     1.71833273700000    10.46671082600000
  1     4.55297250300000     1.71831706000000     8.53343394300000
  1     6.09230712100000     4.36241888300000    10.47942284300000
  1     6.09228300200000     4.36237064400000     8.52061097800000
  1     7.71304881200000     6.96662395600000    10.47097630400000
  1     7.71304640000000     6.96667701800000     8.52901410200000
  1     9.07965147600000     9.65309836300000    10.46983908400000
  1     9.07965268200000     9.65313574700000     8.53027794800000
  1     7.54413613100000     1.67282224700000    10.47042638700000
  1     7.54412889500000     1.67279330400000     8.52969546900000
  1     9.06021623700000     4.28907002900000    10.49202873500000
  1     9.06021623700000     4.28903023300000     8.50796770200000
  1    10.42689608200000     6.95696181000000    10.47098957000000
  1    10.42689728800000     6.95701607800000     8.52899963100000
  1    12.06594423500000     9.57830838800000    10.46701472800000
  1    12.06595508900000     9.57833491900000     8.53311315800000
  1    10.55742308100000     1.66198067400000    10.47042518100000
  1    10.55742911100000     1.66195052500000     8.52969788100000
  1    12.02864873900000     4.34107822800000    10.47942646100000
  1    12.02867285800000     4.34103119500000     8.52060615500000
  1    13.62243000600000     6.97270560800000    10.46575450000000
  1    13.62245894900000     6.97274058100000     8.53432997100000
  1    15.10930298500000     9.60674611300000    10.46661314300000
  1    15.10930298500000     9.60674852500000     8.53354730300000
