CRYSTAL
PRIMVEC
 12.05338749200000 -0.04324781400000 0.00000000000000
 6.06497553400000 10.56256736900000 0.00000000000000
 0.00000000000000 0.00000000000000 19.00000129100000
PRIMCOORD
 63 1
  5     0.01756232500000    -0.00181135800000     9.49998670500000
  5     1.51065494100000     0.80625082000000     9.49998180800000
  5     1.50818636900000     2.64000224000000     9.49998045900000
  5     3.02571735100000     3.43048509100000     9.49997669700000
  5     3.03234392700000     5.25969366600000     9.49997360700000
  5     4.50672822400000     6.08832939600000     9.49997366900000
  5     4.53430534600000     7.92871116400000     9.49998196100000
  5     6.03516647900000     8.69960205900000     9.49998311800000
  5     3.01349756600000     0.04242386400000     9.49998021800000
  5     4.52179554100000     0.79546790300000     9.49998430500000
  5     4.53752424600000     2.62914908000000     9.49998107700000
  5     6.05326719700000     3.41920630300000     9.49998561000000
  5     5.99425841700000     5.22048614900000     9.49997429400000
  5     7.11372363700000     6.37727747200000     9.49996921900000
  5     7.62055834000000     7.93600016200000     9.49997999300000
  5     9.07185336300000     8.77220479600000     9.49998013200000
  5     6.00904505700000    -0.02326488800000     9.49999103000000
  5     7.53626261000000     0.78799966700000     9.49999074100000
  5     7.58835207500000     2.61699582800000     9.49998877200000
  5     9.05289420800000     3.54717349800000     9.49998956000000
  5    11.01262266900000     6.36331653300000     9.49996633100000
  5    10.51713411000000     7.92568305100000     9.49998189900000
  5    12.10793539000000     8.67789950500000     9.49998749800000
  5     9.03996560700000    -0.04099309800000     9.49998835100000
  5    10.54960517900000     0.77716602400000     9.49998528500000
  5    10.51073036200000     2.60651924900000     9.49998293400000
  5    12.05156315800000     3.39767129900000     9.49998104300000
  5    12.12363581000000     5.19846719600000     9.49997095800000
  5    13.61736564600000     6.05566912800000     9.49997472200000
  5    13.60316809700000     7.89620066200000     9.49998612400000
  5    15.09832589000000     8.69352788600000     9.49998673300000
  1     1.49610678900000     1.72662710900000    10.46702664900000
  1     1.49609598400000     1.72662612300000     8.53293474000000
  1     3.02908518000000     4.36234387700000    10.46839148500000
  1     3.02908185000000     4.36234002400000     8.53155876500000
  1     4.51977353400000     7.00665904500000    10.46659202200000
  1     4.51977038200000     7.00666673400000     8.53336239500000
  1     6.09212492300000     9.60299630900000    10.46741378500000
  1     6.09212211400000     9.60299833400000     8.53255617100000
  1     4.54298207600000     1.71571424500000    10.46702830100000
  1     4.54299095300000     1.71571091600000     8.53293530800000
  1     6.07252193800000     4.36062111600000    10.48027011500000
  1     6.07253281300000     4.36061025400000     8.51969147300000
  1     7.71049176400000     6.95635897500000    10.47619337000000
  1     7.71048992800000     6.95636931200000     8.52375138200000
  1     9.07499937900000     9.64696902900000    10.47034492300000
  1     9.07500130100000     9.64696873400000     8.52961438400000
  1     7.54791698400000     1.67613376800000    10.47018222100000
  1     7.54791299100000     1.67613057800000     8.52979678500000
  1     9.05559754600000     4.30112435400000    10.49677272700000
  1     9.05559562500000     4.30115250400000     8.50322856400000
  1    10.42014747300000     6.94674191100000    10.47620439400000
  1    10.42014938500000     6.94675762100000     8.52373838500000
  1    12.05752695000000     9.58167197700000    10.46742164200000
  1    12.05752801700000     9.58167371100000     8.53255640700000
  1    10.54438024300000     1.66537296900000    10.47017219200000
  1    10.54438018500000     1.66536875000000     8.52979322800000
  1    12.03914553300000     4.33920600800000    10.48026995200000
  1    12.03914126300000     4.33919519400000     8.51968256700000
  1    13.61098383200000     6.97406262300000    10.46659652600000
  1    13.61098021500000     6.97407397100000     8.53336396700000
  1    15.10164092200000     9.60941623500000    10.46690867900000
  1    15.10163859000000     9.60941804500000     8.53306477100000
