CRYSTAL
PRIMVEC
 12.05952009000000 -0.04330599600000 0.00000000000000
 6.06798895300000 10.55741343400000 0.00000000000000
 0.00000000000000 0.00000000000000 18.99999643700000
PRIMCOORD
 63 1
  5    -0.00299560300000     0.00424738900000     9.62983842400000
  5     1.50203429900000     0.82659340900000     9.59375250500000
  5     1.50304006900000     2.64731449800000     9.46817355700000
  5     3.02740149700000     3.45557009100000     9.44014224000000
  5     3.03400894800000     5.28124767300000     9.44013982800000
  5     4.55837037600000     6.08950567800000     9.46816873300000
  5     4.55937373500000     7.91022676700000     9.59374647500000
  5     6.06440363600000     8.73256917000000     9.62983480600000
  5     3.01496564600000     0.01211627300000     9.62518703900000
  5     4.53372418700000     0.81570600900000     9.59374044500000
  5     4.54589955200000     2.63638609600000     9.46816632100000
  5     6.07043584400000     3.45653365300000     9.42781251300000
  5     6.07696008400000     5.25842851200000     9.42781733700000
  5     7.59718627800000     6.09680414300000     9.46798904500000
  5     7.57990488200000     7.90373750000000     9.60041904800000
  5     9.07636041300000     8.74719986700000     9.63468396800000
  5     6.03279182600000    -0.01742972900000     9.62982395200000
  5     7.55421795000000     0.80049886300000     9.60040940000000
  5     7.58458641600000     2.60725615000000     9.46797216200000
  5     9.05749800500000     3.53028529600000     9.46416374300000
  5     9.06343253000000     5.16322285300000     9.46416253700000
  5    10.53634170800000     6.08625682400000     9.46796854400000
  5    10.56670655500000     7.89301531600000     9.60040457600000
  5    12.08813267900000     8.71094029100000     9.62982033400000
  5     9.04456409200000    -0.05368568800000     9.63468758600000
  5    10.54102083000000     0.78977426800000     9.60042387200000
  5    10.52374305100000     2.59670641900000     9.46799145700000
  5    12.04396803900000     3.43507963800000     9.42781974900000
  5    12.05049107300000     5.23697570300000     9.42781010100000
  5    13.57502616000000     6.05712567200000     9.46816270300000
  5    13.58720031800000     7.87780696400000     9.59373441600000
  5    15.10595886000000     8.68139790700000     9.62518221500000
  1     1.49098771200000     1.80401373000000    10.49473068700000
  1     1.49336345200000     1.67204560900000     8.56703739500000
  1     3.03070462000000     4.36841008800000    10.40595520300000
  1     3.03070462000000     4.36840767600000     8.47466574100000
  1     4.57041670300000     6.93280765300000    10.49472586300000
  1     4.56804096400000     7.06477456700000     8.56703136500000
  1     6.06470030200000     9.64711439300000    10.59582745600000
  1     6.06469789000000     9.64711921700000     8.66356357900000
  1     4.55184493100000     1.79301899900000    10.49472103900000
  1     4.54851045400000     1.66107499800000     8.56702654100000
  1     6.10766139400000     4.35735385400000    10.39740736400000
  1     6.07800926800000     4.35746721400000     8.45671744900000
  1     7.60178460100000     6.93454664600000    10.50246329700000
  1     7.61156251800000     7.08685206300000     8.56852434300000
  1     9.07968644900000     9.66369030300000    10.59669574700000
  1     9.07963459300000     9.65203953000000     8.66296301100000
  1     7.58309705600000     1.76950761800000    10.50245123800000
  1     7.59178840400000     1.61713225500000     8.56850987100000
  1     9.06046587100000     4.34675226600000     8.40330069000000
  1    10.53782262600000     6.92400656200000    10.50244520800000
  1    10.52913489500000     7.07638071900000     8.56850504700000
  1    12.09445914100000     9.62546139500000    10.59581177900000
  1    12.09445672900000     9.62546621800000     8.66354790100000
  1    10.51914352300000     1.75896512200000    10.50246812100000
  1    10.50936560500000     1.60665729300000     8.56852796000000
  1    12.01326431700000     4.33615670800000    10.39740736400000
  1    12.04291523700000     4.33603852400000     8.45671624300000
  1    13.56908319200000     6.90049518100000    10.49471621500000
  1    13.57241405200000     7.03243677000000     8.56702292300000
  1    15.10923183300000     9.58723610500000    10.59669454100000
  1    15.10928489600000     9.59889531900000     8.66296180500000
