CRYSTAL
PRIMVEC
 12.05338749200000 -0.04324781400000 0.00000000000000
 6.06497553400000 10.56256736900000 0.00000000000000
 0.00000000000000 0.00000000000000 19.00000129100000
PRIMCOORD
 63 1
  5    -0.00308009600000     0.00462370800000     9.64187514400000
  5     1.50155331800000     0.82050470000000     9.60280631300000
  5     1.50252957800000     2.64702094700000     9.46289265100000
  5     3.02581676600000     3.45147685100000     9.43158142900000
  5     3.03245470000000     5.28336559800000     9.43159054400000
  5     4.55574242500000     6.08782100200000     9.46290253600000
  5     4.55671767800000     7.91433697700000     9.60281827900000
  5     6.06134935400000     8.73022029000000     9.64188072800000
  5     3.01338510600000     0.01130705100000     9.63741066600000
  5     4.53100561200000     0.80963402900000     9.60278338700000
  5     4.54326859800000     2.63610811200000     9.46287777000000
  5     6.06664414200000     3.45260123300000     9.42051618300000
  5     6.07319996600000     5.26042023300000     9.42053582800000
  5     7.59301809600000     6.09362411200000     9.46478551000000
  5     7.57588152700000     7.90673352700000     9.60985180300000
  5     9.07172948700000     8.74403334100000     9.64740686600000
  5     6.02972097700000    -0.01702786000000     9.64184619100000
  5     7.55013861600000     0.79556863500000     9.60981667800000
  5     7.58042543600000     2.60850164600000     9.46474700300000
  5     9.05284984100000     3.52936956300000     9.45636323800000
  5     9.05880340500000     5.16222264500000     9.45636783500000
  5    10.53122828000000     6.08309026400000     9.46475580900000
  5    10.56151353700000     7.89602295700000     9.60982875700000
  5    12.08193086700000     8.70861973600000     9.64185669500000
  5     9.03992254900000    -0.05244276600000     9.64740031500000
  5    10.53577007800000     0.78485933800000     9.60984380000000
  5    10.51863471000000     2.59796877600000     9.46477984800000
  5    12.03845449400000     3.43117122700000     9.42053377900000
  5    12.04500998000000     5.23899097200000     9.42052660600000
  5    13.56838539000000     6.05548367100000     9.46289378000000
  5    13.58064651700000     7.88195761900000     9.60279941500000
  5    15.09826718100000     8.68028344200000     9.63742122300000
  1     1.49147381000000     1.80880209000000    10.49671794800000
  1     1.49337072800000     1.66232707200000     8.56864290700000
  1     3.02913840000000     4.36741627100000    10.39843635900000
  1     3.02913504000000     4.36742600000000     8.46547248700000
  1     4.56680685000000     6.92603900800000    10.49672932400000
  1     4.56490484900000     7.07251530900000     8.56865485900000
  1     6.06162494500000     9.64870614000000    10.60811961500000
  1     6.06161835900000     9.64870065800000     8.67487773200000
  1     4.54825569600000     1.79782767000000    10.49669949900000
  1     4.54529417700000     1.65137671500000     8.56862287800000
  1     6.09880945400000     4.35639397600000    10.39109194600000
  1     6.07303274700000     4.35650910200000     8.44898004100000
  1     7.59671247300000     6.92737761100000    10.50561661100000
  1     7.60622930900000     7.09319613400000     8.57165368800000
  1     9.07507800000000     9.66457957800000    10.60963736600000
  1     9.07501278100000     9.65260792800000     8.67469440300000
  1     7.57805089000000     1.77474617100000    10.50557954300000
  1     7.58638954900000     1.60886677400000     8.57161601600000
  1     9.05582823800000     4.34579716600000     8.39036151800000
  1    10.53359978200000     6.91684254600000    10.50558907900000
  1    10.52526565700000     7.08272688100000     8.57162547200000
  1    12.08831452300000     9.62708296800000    10.60809348100000
  1    12.08831178700000     9.62707239900000     8.67485043600000
  1    10.51493338400000     1.76421279400000    10.50561029300000
  1    10.50542255300000     1.59839863100000     8.57164651400000
  1    12.01284597500000     4.33519136800000    10.39109610800000
  1    12.03862477300000     4.33508954700000     8.44898421700000
  1    13.56339955700000     6.89376385900000    10.49671608300000
  1    13.56636023400000     7.04021505300000     8.56863969100000
  1    15.10154902200000     9.58958195400000    10.60963977300000
  1    15.10161564400000     9.60153624800000     8.67469626200000
