CRYSTAL
PRIMVEC
 12.05952009000000 -0.04330599600000 0.00000000000000
 6.06798895300000 10.55741343400000 0.00000000000000
 0.00000000000000 0.00000000000000 18.99999643700000
PRIMCOORD
 64 1
  5     0.00000000000000     0.00000000000000     9.49999821900000
  5     1.51036144800000     0.81871970100000     9.49999821900000
  5     1.51699784100000     2.63935396100000     9.49999821900000
  5     3.02735928900000     3.45807366300000     9.49999821900000
  5     3.03399688800000     5.27870792300000     9.49999821900000
  5     4.54435833600000     6.09742883000000     9.49999821900000
  5     4.55099473000000     7.91806309000000     9.49999821900000
  5     6.06135617700000     8.73678279100000     9.49999821900000
  5     3.01487881700000    -0.01082710200000     9.49999821900000
  5     4.52524026400000     0.80789259900000     9.49999821900000
  5     4.53187665800000     2.62852685900000     9.49999821900000
  5     6.04223810500000     3.44724656100000     9.49999821900000
  5     6.04887570500000     5.26788082100000     9.49999821900000
  5     7.55923594700000     6.08660052200000     9.49999821900000
  5     7.56587354600000     7.90723478200000     9.49999821900000
  5     9.07623499400000     8.72595568900000     9.49999821900000
  5     6.02975763300000    -0.02165541000000     9.49999821900000
  5     7.54011787500000     0.79706429100000     9.49999821900000
  5     7.54675547400000     2.61769855100000     9.49999821900000
  5     9.05711692200000     3.43641945900000     9.49999821900000
  5     9.06375452100000     5.25705371800000     9.49999821900000
  5    10.57411476300000     6.07577342000000     9.49999821900000
  5    10.58075236300000     7.89640768000000     9.49999821900000
  5    12.09111381000000     8.71512738100000     9.49999821900000
  5     9.04463645000000    -0.03248251200000     9.49999821900000
  5    10.55499669100000     0.78623718900000     9.49999821900000
  5    10.56163429100000     2.60687144900000     9.49999821900000
  5    12.07199573800000     3.42559115100000     9.49999821900000
  5    12.07863333800000     5.24622541000000     9.49999821900000
  5    13.58899358000000     6.06494511200000     9.49999821900000
  5    13.59563117900000     7.88557937200000     9.49999821900000
  5    15.10599262700000     8.70430027900000     9.49999821900000
  1     1.51373451500000     1.72907662800000    10.46688327900000
  1     1.51373451500000     1.72907662800000     8.53311315800000
  1     3.03073235700000     4.36843058900000    10.46688327900000
  1     3.03073235700000     4.36843058900000     8.53311315800000
  1     4.54773140400000     7.00778455100000    10.46688327900000
  1     4.54773140400000     7.00778455100000     8.53311315800000
  1     6.06472924500000     9.64713851200000    10.46688327900000
  1     6.06472924500000     9.64713851200000     8.53311315800000
  1     4.52861333200000     1.71824832000000    10.46688327900000
  1     4.52861333200000     1.71824832000000     8.53311315800000
  1     6.04561117300000     4.35760228100000    10.46688327900000
  1     6.04561117300000     4.35760228100000     8.53311315800000
  1     7.56261022000000     6.99695744900000    10.46688327900000
  1     7.56261022000000     6.99695744900000     8.53311315800000
  1     9.07960806200000     9.63631141000000    10.46688327900000
  1     9.07960806200000     9.63631141000000     8.53311315800000
  1     7.54349214900000     1.70742121800000    10.46688327900000
  1     7.54349214900000     1.70742121800000     8.53311315800000
  1     9.06048999000000     4.34677517900000    10.46688327900000
  1     9.06048999000000     4.34677517900000     8.53311315800000
  1    10.57748903700000     6.98612914100000    10.46688327900000
  1    10.57748903700000     6.98612914100000     8.53311315800000
  1    12.09448687800000     9.62548310200000    10.46688327900000
  1    12.09448687800000     9.62548310200000     8.53311315800000
  1    10.55837096500000     1.69659291000000    10.46688327900000
  1    10.55837096500000     1.69659291000000     8.53311315800000
  1    12.07536880600000     4.33594807700000    10.46688327900000
  1    12.07536880600000     4.33594807700000     8.53311315800000
  1    13.59236785400000     6.97530203800000    10.46688327900000
  1    13.59236785400000     6.97530203800000     8.53311315800000
  1    15.10936569500000     9.61465600000000    10.46688327900000
  1    15.10936569500000     9.61465600000000     8.53311315800000
