CRYSTAL
PRIMVEC
 12.05338749200000 -0.04324781400000 0.00000000000000
 6.06497553400000 10.56256736900000 0.00000000000000
 0.00000000000000 0.00000000000000 19.00000129100000
PRIMCOORD
 64 1
  5     0.00000000000000     0.00000000000000     9.50000004300000
  5     1.50951865600000     0.81281542000000     9.50000004300000
  5     1.51624328100000     2.64064063700000     9.50000004300000
  5     3.02576193700000     3.45345605600000     9.50000004300000
  5     3.03248776700000     5.28128127400000     9.50000004300000
  5     4.54200642300000     6.09409669300000     9.50000004300000
  5     4.54873104800000     7.92192191000000     9.50000004300000
  5     6.05824970400000     8.73473733000000     9.50000004300000
  5     3.01334566800000    -0.01081315900000     9.50000004300000
  5     4.52286432300000     0.80200226100000     9.50000004300000
  5     4.52958894900000     2.62982868300000     9.50000004300000
  5     6.03910760400000     3.44264289800000     9.50000004300000
  5     6.04583343500000     5.27046932000000     9.50000004300000
  5     7.55535209100000     6.08328353400000     9.50000004300000
  5     7.56207671600000     7.91110995700000     9.50000004300000
  5     9.07159537200000     8.72392417100000     9.50000004300000
  5     6.02669133500000    -0.02162511200000     9.50000004300000
  5     7.53620999100000     0.79118910200000     9.50000004300000
  5     7.54293461600000     2.61901552500000     9.50000004300000
  5     9.05245327200000     3.43183094400000     9.50000004300000
  5     9.05917910200000     5.25965616100000     9.50000004300000
  5    10.56869775800000     6.07247158100000     9.50000004300000
  5    10.57542238300000     7.90029679800000     9.50000004300000
  5    12.08494103900000     8.71311221800000     9.50000004300000
  5     9.04003700300000    -0.03243827100000     9.50000004300000
  5    10.54955565900000     0.78037714900000     9.50000004300000
  5    10.55628028400000     2.60820357100000     9.50000004300000
  5    12.06579894000000     3.42101778600000     9.50000004300000
  5    12.07252477000000     5.24884420800000     9.50000004300000
  5    13.58204342600000     6.06165842200000     9.50000004300000
  5    13.58876805100000     7.88948484500000     9.50000004300000
  5    15.09828670700000     8.70229905900000     9.50000004300000
  1     1.51290206200000     1.72683409900000    10.46739626300000
  1     1.51290206200000     1.72683409900000     8.53260502800000
  1     3.02914654800000     4.36747473600000    10.46739626300000
  1     3.02914654800000     4.36747473600000     8.53260502800000
  1     4.54538982900000     7.00811537200000    10.46739626300000
  1     4.54538982900000     7.00811537200000     8.53260502800000
  1     6.06163431500000     9.64875721400000    10.46739626300000
  1     6.06163431500000     9.64875721400000     8.53260502800000
  1     4.52624772900000     1.71602214500000    10.46739626300000
  1     4.52624772900000     1.71602214500000     8.53260502800000
  1     6.04249221600000     4.35666278200000    10.46739626300000
  1     6.04249221600000     4.35666278200000     8.53260502800000
  1     7.55873549700000     6.99730341900000    10.46739626300000
  1     7.55873549700000     6.99730341900000     8.53260502800000
  1     9.07497998300000     9.63794405600000    10.46739626300000
  1     9.07497998300000     9.63794405600000     8.53260502800000
  1     7.53959339700000     1.70520898600000    10.46739626300000
  1     7.53959339700000     1.70520898600000     8.53260502800000
  1     9.05583788400000     4.34584962300000    10.46739626300000
  1     9.05583788400000     4.34584962300000     8.53260502800000
  1    10.57208116400000     6.98649026000000    10.46739626300000
  1    10.57208116400000     6.98649026000000     8.53260502800000
  1    12.08832565100000     9.62713089700000    10.46739626300000
  1    12.08832565100000     9.62713089700000     8.53260502800000
  1    10.55293906500000     1.69439703300000    10.46739626300000
  1    10.55293906500000     1.69439703300000     8.53260502800000
  1    12.06918234600000     4.33503767000000    10.46739626300000
  1    12.06918234600000     4.33503767000000     8.53260502800000
  1    13.58542683200000     6.97567830700000    10.46739626300000
  1    13.58542683200000     6.97567830700000     8.53260502800000
  1    15.10167011300000     9.61631894300000    10.46739626300000
  1    15.10167011300000     9.61631894300000     8.53260502800000
