CRYSTAL
PRIMVEC
 3.01487985400000 -0.01082761300000 0.00000000000000
 1.51699900700000 2.63935528800000 0.00000000000000
 0.00000000000000 0.00000000000000 20.00000102100000
PRIMCOORD
 4 1
  5     0.00000000000000     0.00000000000000    10.00000051050000
  5     1.51036103300000     0.81872001000000    10.00000051050000
  1     1.51373451800000     1.72907604600000    10.96688583050000
  1     1.51373451800000     1.72907604600000     9.03311519050000
