CRYSTAL
PRIMVEC
 3.01334679400000 -0.01081258200000 0.00000000000000
 1.51624450100000 2.64064185600000 0.00000000000000
 0.00000000000000 0.00000000000000 20.00000102100000
PRIMCOORD
 4 1
  5     0.00000000000000     0.00000000000000    10.00000051050000
  5     1.50951845900000     0.81281486400000    10.00000051050000
  1     1.51290238600000     1.72683433200000    10.96739557050000
  1     1.51290238600000     1.72683433200000     9.03260545050000
