CRYSTAL
PRIMVEC
 12.05338749200000 -0.04324781400000 0.00000000000000
 6.06497553400000 10.56256736900000 0.00000000000000
 0.00000000000000 0.00000000000000 19.00000129100000
PRIMCOORD
 66 1
  5     0.10628819200000     0.03090304100000     8.24906317350000
  5     1.59953629800000     0.84193273700000     8.26715647650000
  5     1.59855240900000     2.67909062300000     8.33136241250000
  5     3.11441593500000     3.46517892400000     8.32404940150000
  5     3.12046033200000     5.29548528300000     8.27474346150000
  5     4.59544148800000     6.12248485700000     8.24910066250000
  5     4.62302347800000     7.96340362900000     8.23612317250000
  5     6.12561698700000     8.73469374000000     8.22184170850000
  5     3.10270564900000     0.07503576000000     8.23796393850000
  5     4.61086828200000     0.83201791400000     8.26756197850000
  5     4.62498230800000     2.66900044000000     8.33112196250000
  5     6.14053209300000     3.45490097800000     8.34203353850000
  5     6.08511845200000     5.25942185300000     8.26361822650000
  5     7.21081033100000     6.41615779200000     8.22081706650000
  5     7.70882202600000     7.96845690800000     8.20185326350000
  5     9.16111704800000     8.80799393100000     8.19299716050000
  5     6.09791071600000     0.01001491000000     8.24950147650000
  5     7.62169121700000     0.81888078300000     8.30543984650000
  5     7.66784615300000     2.65271358100000     8.40747423650000
  5     9.14145749600000     3.50556471200000     8.68120912850000
  5    11.09177390400000     6.40067091600000     8.22385476450000
  5    10.60692118500000     7.95746294100000     8.20367936150000
  5    12.19487520800000     8.71359312200000     8.22350825650000
  5     9.12855715900000    -0.00322341000000     8.30698608750000
  5    10.64158928000000     0.80742126900000     8.30521642450000
  5    10.60867953700000     2.64165053500000     8.40774275650000
  5    12.14198127800000     3.43243147500000     8.34312804150000
  5    12.20949812500000     5.23661088600000     8.26619550450000
  5    13.70487827800000     6.08988540400000     8.25072830450000
  5    13.69144407400000     7.93095741100000     8.23724329950000
  5    15.18687652200000     8.72948125600000     8.25573979150000
  1     1.58939958200000     1.72846358900000     9.26481922050000
  1     1.58587138200000     1.79368159100000     7.33343194050000
  1     3.11715330700000     4.42369829300000     9.26649726450000
  1     3.11622030500000     4.37100169400000     7.33126631150000
  1     4.61859379300000     7.04890708200000     9.20892287450000
  1     4.59845296700000     7.03351136700000     7.27616862250000
  1     6.19547626400000     9.62143662600000     9.20196948550000
  1     6.16821034800000     9.65171249700000     7.26750113950000
  1     4.62778515300000     1.71863983300000     9.26500778950000
  1     4.63125699700000     1.78336870400000     7.33353193850000
  1     6.16143151900000     4.44399794200000     9.27932890050000
  1     6.17976600800000     4.35554142500000     7.32282372550000
  1     7.82960761400000     7.00746982300000     9.18232410950000
  1     7.76570057200000     6.99481719800000     7.21755628750000
  1     9.16505823400000     9.65454893400000     9.18543921850000
  1     9.16528513900000     9.70258442600000     7.24365030950000
  1     7.56572108600000     1.65563735900000     9.31567524550000
  1     7.66422359200000     1.75796848000000     7.38414933850000
  1     9.14239800800000     3.69210913600000     9.92318258250000
  1     9.14574071700000     4.65628017500000     8.15734581150000
  1    10.47811503900000     6.99794836700000     9.18495489950000
  1    10.54286625000000     6.98403569700000     7.22009893750000
  1    12.13142139600000     9.60175063000000     9.20313292850000
  1    12.15920940100000     9.63050842100000     7.26852386750000
  1    10.70314341500000     1.64354538100000     9.31555960150000
  1    10.60611973600000     1.74691833900000     7.38422228450000
  1    12.12899194600000     4.42085853000000     9.28122677350000
  1    12.10948881600000     4.33413018200000     7.32481259350000
  1    13.68879414800000     7.01657405500000     9.21031537350000
  1    13.70795303500000     7.00051339300000     7.27753171650000
  1    15.19075803800000     9.62036492700000     9.24847782850000
  1    15.19038574500000     9.67063965100000     7.31623781950000
  8     9.14687109500000     6.11902960900000    10.82130262650000
  1     9.15644143000000     5.91773149700000    11.78244500350000
  1     9.14627128100000     5.21734164400000    10.37815093250000
