CRYSTAL
PRIMVEC
 12.05952009000000 -0.04330599600000 0.00000000000000
 6.06798895300000 10.55741343400000 0.00000000000000
 0.00000000000000 0.00000000000000 18.99999643700000
PRIMCOORD
 66 1
  5     0.02609816400000     0.04107135400000     8.39246454400000
  5     1.53191917500000     0.86320271400000     8.35890872800000
  5     1.53379926500000     2.68393706900000     8.24562091600000
  5     3.05720919200000     3.49378573400000     8.21842412300000
  5     3.06368639900000     5.31753136900000     8.21994725000000
  5     4.58678398200000     6.12870176500000     8.24316437700000
  5     4.58791155400000     7.94696269700000     8.35979149000000
  5     6.09244580600000     8.77188826500000     8.39063389800000
  5     3.04368918300000     0.04625577300000     8.38771185800000
  5     4.56222462200000     0.85322581300000     8.35690924700000
  5     4.57429145000000     2.67147106800000     8.24085014100000
  5     6.09671610800000     3.49740843600000     8.20304452500000
  5     6.10328617400000     5.29182634700000     8.20455076800000
  5     7.62042390700000     6.13807327400000     8.24392533800000
  5     7.60597289700000     7.93855474900000     8.36474557000000
  5     9.10438690600000     8.78270210200000     8.39817596700000
  5     6.06082917300000     0.01771192300000     8.38939176000000
  5     7.58042706200000     0.83999282200000     8.36424027400000
  5     7.60769862500000     2.64020054500000     8.24213448800000
  5     9.08409181800000     3.56277383900000     8.25066785600000
  5     9.09032903900000     5.20517094000000     8.25214033200000
  5    10.56776659400000     6.12221370500000     8.25331855400000
  5    10.59606925100000     7.92974039300000     8.36861187600000
  5    12.11705399400000     8.74853245200000     8.39377542100000
  5     9.07273891800000    -0.01501539900000     8.39896587000000
  5    10.57044864700000     0.82742431500000     8.36794859800000
  5    10.55491227400000     2.63504748100000     8.25134198700000
  5    12.07527956500000     3.47055654700000     8.21212298600000
  5    12.08180259900000     5.27556278100000     8.21372570600000
  5    13.60557551900000     6.09481551600000     8.24804248300000
  5    13.61692842000000     7.91560413900000     8.36190191900000
  5    15.13469928100000     8.72142128300000     8.39059892500000
  1     1.52478833800000     1.83363811800000     9.26670781500000
  1     1.52508018000000     1.71445799000000     7.33761199200000
  1     3.06614776200000     4.40479990800000     9.18561790900000
  1     3.05939680200000     4.40646051400000     7.25295365300000
  1     4.60437892800000     6.97525741800000     9.26629658300000
  1     4.59406556400000     7.09840032800000     7.33610333700000
  1     6.09445855200000     9.68370199000000     9.35798566400000
  1     6.09220702700000     9.68577744600000     7.42486193800000
  1     4.58559611200000     1.82451865500000     9.26367482700000
  1     4.57398031300000     1.70203781600000     7.33351293700000
  1     6.13153456300000     4.39360016500000     9.17675169700000
  1     6.10257345200000     4.39528368400000     7.22932529400000
  1     7.61695798000000     6.97758853700000     9.27494210500000
  1     7.63555387100000     7.11753769600000     7.33527725500000
  1     9.10779494700000     9.69836404300000     9.36017568600000
  1     9.10936510600000     9.68614044000000     7.42559516100000
  1     7.59794000200000     1.80132805800000     9.27378800200000
  1     7.61649609700000     1.66011264300000     7.33431610600000
  1     9.08776637600000     4.38473757000000     7.19909913100000
  1    10.56769182400000     6.96891045400000     9.27965981700000
  1    10.56079735500000     7.10203870700000     7.34444495700000
  1    12.12281486100000     9.66474189900000     9.35787954000000
  1    12.12273526800000     9.65998318400000     7.42501027100000
  1    10.54919240900000     1.78905139300000     9.27830552500000
  1    10.54042749700000     1.65454472900000     7.34320764300000
  1    12.05381349100000     4.37226312800000     9.18199520800000
  1    12.07211754000000     4.37389358500000     7.24264390800000
  1    13.60296582300000     6.94507346400000     9.26932836400000
  1    13.60364357200000     7.06467447200000     7.34043393700000
  1    15.13763579100000     9.62784798800000     9.36207748400000
  1    15.13893219800000     9.63779715200000     7.42753554900000
  8     8.06855956800000     4.37902132300000    11.18847381700000
  1     8.83217416800000     4.38825897100000    11.80089730600000
  1     8.48820444200000     4.38121014000000    10.28138383400000
