CRYSTAL
PRIMVEC
 12.05952009000000 -0.04330599600000 0.00000000000000
 6.06798895300000 10.55741343400000 0.00000000000000
 0.00000000000000 0.00000000000000 18.99999643700000
PRIMCOORD
 67 1
  5    -0.00776999500000    -0.03651162200000     8.00928365600000
  5     1.50322096300000     0.78360940400000     8.01635178300000
  5     1.50959084000000     2.60299549600000     8.03115493300000
  5     3.02021518600000     3.42319008600000     8.03794568900000
  5     3.02681057700000     5.24293917100000     8.04651764800000
  5     4.53781118300000     6.06203995600000     8.04360405000000
  5     4.54441139800000     7.88073141600000     8.01697405800000
  5     6.05418916100000     8.70311723300000     8.01128916600000
  5     3.00776606900000    -0.04833725800000     8.01709947800000
  5     4.51813354600000     0.77349623000000     8.01516150100000
  5     4.52508348900000     2.59250244500000     8.03034332200000
  5     6.03604309300000     3.41169488200000     8.03816155600000
  5     6.04199932500000     5.23122207200000     8.05364727900000
  5     7.54995367800000     6.05329434000000     8.06573219600000
  5     7.55792748100000     7.87357525400000     8.02930137300000
  5     9.06933931900000     8.69124697600000     8.02671579700000
  5     6.02306576500000    -0.05767982500000     8.00767249400000
  5     7.53339103400000     0.76102902300000     8.01021465600000
  5     7.54007807800000     2.58137505900000     8.03018654700000
  5     9.04985463500000     3.39577983800000     8.04213157400000
  5     9.05643676100000     5.22526583900000     8.07692108600000
  5    10.56962497700000     6.04237076100000     8.06689474100000
  5    10.57481421900000     7.86372136000000     8.02650475400000
  5    12.08414698400000     8.68197918000000     8.00895081100000
  5     9.03742601900000    -0.07018682800000     8.00636644000000
  5    10.54737382300000     0.74979068900000     8.01119992500000
  5    10.55390771000000     2.57078432500000     8.03215467300000
  5    12.06421006500000     3.38887089700000     8.03949655300000
  5    12.07163756800000     5.21027817700000     8.05508237000000
  5    13.58147321800000     6.02972989600000     8.04412381900000
  5    13.58785636000000     7.84889168000000     8.01602135000000
  5    15.09887023100000     8.66804190900000     8.00867826400000
  1     1.50534948100000     1.68571877500000     8.99093206900000
  1     1.50790973200000     1.70199922500000     7.05663494500000
  1     3.02425032600000     4.32843133300000     9.00937118600000
  1     3.02292497700000     4.33751100000000     7.07499688000000
  1     4.54256628000000     6.98491353400000     8.99754193200000
  1     4.54316805400000     6.95685086200000     7.06281548600000
  1     6.05563751800000     9.61325346900000     8.97780399700000
  1     6.05888516700000     9.61066306900000     7.04257466600000
  1     4.52326249100000     1.67549103500000     8.99011081100000
  1     4.51923941100000     1.69207056300000     7.05549651900000
  1     6.03596470500000     4.31349552800000     9.01312171900000
  1     6.04494669000000     4.32947569400000     7.07861234600000
  1     7.52041611800000     6.98348567800000     9.01418055200000
  1     7.56436850900000     6.94459952200000     7.08042369700000
  1     9.07369886100000     9.60666652000000     8.98998177300000
  1     9.07194660300000     9.59698628500000     7.05393600800000
  1     7.53676651400000     1.65952413500000     8.98711038400000
  1     7.53826672700000     1.68092147000000     7.05321846200000
  1     9.04707731100000     4.29274338100000     9.02415986400000
  1     9.05484368900000     4.33143296600000     7.09573937900000
  1    10.60669495800000     6.97511029100000     9.01268878000000
  1    10.56200572600000     6.93214678700000     7.07980262800000
  1    12.08807117500000     9.59225048300000     8.97591546500000
  1    12.08573402600000     9.59030165300000     7.04054865400000
  1    10.54985327500000     1.64791315900000     8.98844658700000
  1    10.54930938700000     1.67035847200000     7.05479223900000
  1    12.07475376700000     4.29150365500000     9.01394297800000
  1    12.06196698100000     4.30769124600000     7.08063594600000
  1    13.58417818400000     6.95370933800000     8.99721994100000
  1    13.58199660400000     6.92410062700000     7.06278413100000
  1    15.10157158000000     9.57753175100000     8.97476256800000
  1    15.10218661900000     9.57488105200000     7.04013742200000
  8     9.09081142300000     6.36767223700000    11.47626332800000
  1     9.11930221000000     6.08766176600000    10.53424997100000
  1     9.43792870200000     5.58975857900000    11.95985901500000
