CRYSTAL
PRIMVEC
 12.05952009000000 -0.04330599600000 0.00000000000000
 6.06798895300000 10.55741343400000 0.00000000000000
 0.00000000000000 0.00000000000000 18.99999643700000
PRIMCOORD
 66 1
  5     0.01873578300000    -0.02412521500000     8.21625219100000
  5     1.51002377900000     0.79862359700000     8.23138094900000
  5     1.50760462500000     2.62775745700000     8.29433202200000
  5     3.02657903300000     3.41906570500000     8.28664282600000
  5     3.03212041600000     5.24152940500000     8.24422562100000
  5     4.50595818200000     6.07311307400000     8.22360492400000
  5     4.53388216800000     7.90872775900000     8.20627408400000
  5     6.03751798100000     8.68218781100000     8.19491997800000
  5     3.01574831300000     0.03021289700000     8.20144421700000
  5     4.52597469300000     0.78991898300000     8.23066702200000
  5     4.54107209700000     2.61898651600000     8.29456597800000
  5     6.05813988400000     3.41322162700000     8.31617556200000
  5     5.99716658500000     5.21139127800000     8.24660136100000
  5     7.09928429600000     6.38997886500000     8.21302022000000
  5     7.62728099100000     7.92174970700000     8.18332709100000
  5     9.07763873000000     8.76567275100000     8.16788840100000
  5     6.01113400400000    -0.04352909900000     8.21482312900000
  5     7.53506731700000     0.77137133000000     8.27276947100000
  5     7.58302469900000     2.59180057600000     8.38544947900000
  5     9.05796229900000     3.44431969800000     8.67053583200000
  5    11.03328495100000     6.37155783800000     8.20880298000000
  5    10.52179301500000     7.91081045100000     8.18129866800000
  5    12.11434540900000     8.66285387200000     8.19292893900000
  5     9.04427104400000    -0.05596615700000     8.27227623300000
  5    10.56018472800000     0.75880402800000     8.27363776100000
  5    10.52566655600000     2.57962159400000     8.38527943800000
  5    12.05623385100000     3.38954020500000     8.31507331500000
  5    12.12808007900000     5.18695854300000     8.24318970200000
  5    13.62409543500000     6.04115394800000     8.22163197500000
  5    13.61107228100000     7.87693143800000     8.20474975100000
  5    15.10534864400000     8.68025465800000     8.22129913000000
  1     1.49782067700000     1.68093714700000     9.22811229500000
  1     1.48877115900000     1.74574780900000     7.29742943000000
  1     3.02781634700000     4.36835702600000     9.23211608000000
  1     3.02870634500000     4.32289598000000     7.29773574400000
  1     4.52024638700000     7.00097088100000     9.18013079400000
  1     4.50932522000000     6.98091819100000     7.24923688700000
  1     6.10722121900000     9.56982567100000     9.17180847000000
  1     6.08220359500000     9.59395812100000     7.23789725200000
  1     4.54454767200000     1.67182612500000     9.22786386700000
  1     4.55335720400000     1.73753884400000     7.29721838700000
  1     6.08275833600000     4.39188890900000     9.25796581600000
  1     6.11521431700000     4.31324589400000     7.30312035200000
  1     7.74192550700000     6.97070371600000     9.16829189300000
  1     7.68752950900000     6.94657729500000     7.21439551800000
  1     9.08200671500000     9.61616827300000     9.15404589600000
  1     9.08155930400000     9.65231448900000     7.21319438300000
  1     7.46872508700000     1.59686249200000     9.28721515200000
  1     7.57288740500000     1.71103306600000     7.35680603900000
  1     9.05877752800000     3.61309490000000     9.91044403600000
  1     9.06346388500000     4.58991706400000     8.15951060200000
  1    10.40088595300000     6.96011660000000     9.16570872800000
  1    10.45424965000000     6.93756878000000     7.21039535100000
  1    12.05080582800000     9.55112365500000     9.17004173900000
  1    12.07565341300000     9.57552021000000     7.23620770300000
  1    10.63281482900000     1.58424212900000     9.28761311800000
  1    10.53012619400000     1.69810638900000     7.35713406000000
  1    12.03925153300000     4.36907336600000     9.25561901900000
  1    12.00759630900000     4.28821862200000     7.30056974800000
  1    13.61400999800000     6.96865720300000     9.17842436200000
  1    13.62722248800000     6.94898439000000     7.24739538700000
  1    15.10715034800000     9.56870774700000     9.21326693700000
  1    15.10827430200000     9.61903725000000     7.28206550900000
  8     9.06923440000000     6.02682594600000    10.83749746800000
  1     9.06863383300000     5.79903109800000    11.78960108600000
  1     9.06539462600000     5.13994904600000    10.37161129200000
