CRYSTAL
PRIMVEC
 12.05338749200000 -0.04324781400000 0.00000000000000
 6.06497553400000 10.56256736900000 0.00000000000000
 0.00000000000000 0.00000000000000 19.00000129100000
PRIMCOORD
 67 1
  5    -0.00205544700000    -0.04537753600000     8.04685257750000
  5     1.50846118900000     0.76829099200000     8.05717063250000
  5     1.51450390800000     2.59490044700000     8.07567179850000
  5     3.02424406400000     3.40918027300000     8.08071973250000
  5     3.03087631900000     5.23666622800000     8.08011868750000
  5     4.54094288900000     6.05009571200000     8.07186297250000
  5     4.54779618500000     7.87595996400000     8.04147945450000
  5     6.05660166000000     8.69309683400000     8.03365819350000
  5     3.01199189400000    -0.05921433400000     8.05424818350000
  5     4.52141508600000     0.75794365600000     8.05614764850000
  5     4.52826374500000     2.58445262600000     8.07387096450000
  5     6.03829993800000     3.39795483900000     8.07809321450000
  5     6.04411670700000     5.22508617400000     8.08148733750000
  5     7.55040274700000     6.04306057900000     8.08626700950000
  5     7.55893288100000     7.86760923600000     8.04562598450000
  5     9.07032273800000     8.67901051100000     8.04891876350000
  5     6.02620198300000    -0.06616740000000     8.04540453850000
  5     7.53563065200000     0.74690679000000     8.05178972050000
  5     7.54207430900000     2.57498255200000     8.07232910850000
  5     9.05105827700000     3.38335051400000     8.08194748350000
  5     9.05750634200000     5.22121702500000     8.10309883750000
  5    10.57093651400000     6.03200130800000     8.09045165850000
  5    10.57607234600000     7.85852819000000     8.04537892250000
  5    12.08437131300000     8.67190942200000     8.03349354750000
  5     9.03877680200000    -0.07850873100000     8.04525547850000
  5    10.54781118700000     0.73560848000000     8.05354190750000
  5    10.55417932600000     2.56390407100000     8.07578327750000
  5    12.06373300700000     3.37529729500000     8.08159022450000
  5    12.07118015600000     5.20382885500000     8.08588987850000
  5    13.58019488500000     6.01744190600000     8.07384668450000
  5    13.58697391200000     7.84395740700000     8.04189799250000
  5    15.09708443000000     8.65761376800000     8.03749741150000
  1     1.51085545200000     1.67184497200000     9.03408913350000
  1     1.51328079900000     1.69189474300000     7.09875918450000
  1     3.02804443800000     4.32305048500000     9.04791917950000
  1     3.02598965300000     4.32228604800000     7.11283552250000
  1     4.54850177600000     6.97854373000000     9.02446355250000
  1     4.54370718500000     6.94662418300000     7.08880961450000
  1     6.06189776500000     9.59848207500000     9.00864565350000
  1     6.05942147200000     9.61177158000000     7.07189919850000
  1     4.52664733300000     1.66223114800000     9.03267017350000
  1     4.52208131900000     1.68141792000000     7.09732901950000
  1     6.03894427700000     4.31010098900000     9.04753978750000
  1     6.04451549700000     4.31333348400000     7.11204263550000
  1     7.51355592800000     6.97803071900000     9.03162832750000
  1     7.56111876700000     6.93395186400000     7.09644145250000
  1     9.07369450200000     9.58953701100000     9.02072688250000
  1     9.07356233800000     9.59606210400000     7.08288750250000
  1     7.54031827600000     1.64903087200000     9.02941942650000
  1     7.54050251600000     1.67113835000000     7.09466044050000
  1     9.05000409300000     4.29220771800000     9.05765562250000
  1     9.05722007300000     4.31754877800000     7.12829773650000
  1    10.61235949700000     6.96979416700000     9.03318831150000
  1    10.56753455700000     6.92151908700000     7.09925950450000
  1    12.08712029200000     9.57852696300000     9.00776228450000
  1    12.08883862900000     9.59039294800000     7.07118503150000
  1    10.54943331500000     1.63681937900000     9.03200453350000
  1    10.55011929500000     1.66055550100000     7.09738619050000
  1    12.07135224900000     4.28755578100000     9.05121790750000
  1    12.06137528200000     4.29180592200000     7.11646556250000
  1    13.58099222500000     6.94694806500000     9.02558084150000
  1    13.58253192600000     6.91351643100000     7.09019919550000
  1    15.10058738200000     9.56538205800000     9.00914469750000
  1    15.10089440700000     9.57341059000000     7.07365952650000
  8     8.99555617100000     6.58673635000000    11.30486548650000
  1     9.07416808100000     6.16823138100000    10.41498296250000
  1     9.19767308400000     5.85534615400000    11.92881625950000
