CRYSTAL
PRIMVEC
 12.05338749200000 -0.04324781400000 0.00000000000000
 6.06497553400000 10.56256736900000 0.00000000000000
 0.00000000000000 0.00000000000000 19.00000129100000
PRIMCOORD
 66 1
  5     0.03223999400000     0.04157244800000     8.45548517500000
  5     1.53784806800000     0.85723154200000     8.41762907100000
  5     1.54004481100000     2.68366205800000     8.28294452300000
  5     3.06250493200000     3.48941850300000     8.25024972300000
  5     3.06905421300000     5.31944127200000     8.25235483200000
  5     4.59105813700000     6.12698888800000     8.27830985700000
  5     4.59191377300000     7.95048714100000     8.41767445700000
  5     6.09615215300000     8.76899150100000     8.45182626200000
  5     3.04855227900000     0.04553353000000     8.45100836100000
  5     4.56615148300000     0.84756742400000     8.41547166200000
  5     4.57862913200000     2.67104290900000     8.27597962400000
  5     6.09938219400000     3.49451808500000     8.22803448000000
  5     6.10593888500000     5.29269014000000     8.22886093100000
  5     7.62269412900000     6.13453850900000     8.26966301600000
  5     7.60858958000000     7.94030612900000     8.41806843100000
  5     9.10618536700000     8.77902336400000     8.45930656700000
  5     6.06437395400000     0.01811276800000     8.45210986700000
  5     7.58269246600000     0.83614411400000     8.41891057700000
  5     7.60988465600000     2.64163035600000     8.26923066000000
  5     9.08622497700000     3.56144122200000     8.26631492400000
  5     9.09225955200000     5.20392747800000     8.26664512100000
  5    10.56889589100000     6.11801131200000     8.28520894000000
  5    10.59710265300000     7.93208536700000     8.42558616100000
  5    12.11728101800000     8.74554909100000     8.45751889500000
  5     9.07434251900000    -0.01328419000000     8.46057488700000
  5    10.57139443000000     0.82284413800000     8.42487249700000
  5    10.55629879000000     2.63699790400000     8.28389071900000
  5    12.07658856000000     3.46632686600000     8.24342296600000
  5    12.08314193600000     5.27784396000000     8.24494830900000
  5    13.60582665300000     6.09287184100000     8.28601544900000
  5    13.61701901700000     7.91921998600000     8.42125499100000
  5    15.13352189300000     8.72013583100000     8.45418746600000
  1     1.53211154700000     1.84215267900000     9.31461372800000
  1     1.53220752000000     1.70095957800000     7.38577539600000
  1     3.07238414400000     4.40326699500000     9.21882153800000
  1     3.06371916700000     4.40548987900000     7.28444902000000
  1     4.61026771900000     6.96374819300000     9.31289717800000
  1     4.59534246700000     7.11045333100000     7.38275945400000
  1     6.09844711700000     9.68409449400000     9.42027893100000
  1     6.09502244600000     9.68797762900000     7.48633926900000
  1     4.59041880900000     1.83433640100000     9.31057580300000
  1     4.57721861100000     1.68758566700000     7.38045395200000
  1     6.13278180900000     4.39294263900000     9.20222647900000
  1     6.09819063400000     4.39400645000000     7.25194883800000
  1     7.61932236500000     6.96195315200000     9.31385671100000
  1     7.63642770700000     7.13115628400000     7.37518166000000
  1     9.10928471700000     9.69777893900000     9.42271618000000
  1     9.11108171800000     9.68778959000000     7.48713839100000
  1     7.59947576900000     1.81494871000000     9.31409929200000
  1     7.61661110300000     1.64431865000000     7.37541894100000
  1     9.09305670900000     4.38278825800000     7.20855472300000
  1    10.56535811100000     6.95442547100000     9.32385477900000
  1    10.56464354300000     7.11414491200000     7.38973455800000
  1    12.12409913400000     9.66648854300000     9.42143013800000
  1    12.12326675600000     9.66082141400000     7.48753995300000
  1    10.54846990000000     1.80080154500000     9.32286267000000
  1    10.54446001800000     1.64048413800000     7.38875269900000
  1    12.05606000400000     4.37137025800000     9.21441853700000
  1    12.07737322800000     4.37294550800000     7.27362830400000
  1    13.60362369900000     6.93418847900000     9.31799096600000
  1    13.60544109600000     7.07590877300000     7.38920020200000
  1    15.13628934600000     9.63149789200000     9.42500138300000
  1    15.13706579100000     9.63943092400000     7.48937543400000
  8     7.91953322000000     4.38540221300000    11.11568958600000
  1     8.63199164200000     4.38493471800000    11.79144656800000
  1     8.41150164100000     4.38460140600000    10.24158318300000
